<?xml version="1.0" encoding="UTF-8"?>

<!-- generated on 2025-04-10 20:31:45 by Eclipse SUMO duarouter Version 1.22.0
<duarouterConfiguration xmlns:xsi="http://www.w3.org/2001/XMLSchema-instance" xsi:noNamespaceSchemaLocation="http://sumo.dlr.de/xsd/duarouterConfiguration.xsd">

    <input>
        <net-file value="grid.net.xml"/>
        <route-files value="trips.trips.xml"/>
    </input>

    <output>
        <output-file value="grid.rou.xml"/>
    </output>

</duarouterConfiguration>
-->

<routes xmlns:xsi="http://www.w3.org/2001/XMLSchema-instance" xsi:noNamespaceSchemaLocation="http://sumo.dlr.de/xsd/routes_file.xsd">
    <vehicle id="0" depart="0.00">
        <route edges="D0E0 E0E1 E1D1 D1C1 C1B1 B1A1 A1A0"/>
    </vehicle>
    <vehicle id="1" depart="0.50">
        <route edges="B2B3 B3B2 B2B1 B1B0"/>
    </vehicle>
    <vehicle id="2" depart="1.00">
        <route edges="D2D3 D3D2 D2D1 D1D2"/>
    </vehicle>
    <vehicle id="3" depart="1.50">
        <route edges="E1E2 E2D2 D2C2 C2B2 B2A2 A2A3"/>
    </vehicle>
    <vehicle id="4" depart="2.00">
        <route edges="C0D0 D0D1 D1C1 C1B1 B1A1 A1A0"/>
    </vehicle>
    <vehicle id="5" depart="2.50">
        <route edges="B1B0 B0C0 C0C1 C1C2 C2C3"/>
    </vehicle>
    <vehicle id="6" depart="3.00">
        <route edges="A1A0 A0B0 B0C0"/>
    </vehicle>
    <vehicle id="7" depart="3.50">
        <route edges="D0E0 E0E1 E1E2 E2E3 E3D3 D3C3 C3C2"/>
    </vehicle>
    <vehicle id="8" depart="4.00">
        <route edges="B1B0 B0B1 B1B2 B2B3 B3B4 B4C4 C4C3"/>
    </vehicle>
    <vehicle id="9" depart="4.50">
        <route edges="D4C4 C4B4 B4B3 B3B2 B2B1 B1B0 B0A0 A0A1"/>
    </vehicle>
    <vehicle id="10" depart="5.00">
        <route edges="D4C4 C4C3 C3C2 C2C1 C1D1 D1E1"/>
    </vehicle>
    <vehicle id="11" depart="5.50">
        <route edges="B3C3 C3B3 B3A3 A3A4 A4B4"/>
    </vehicle>
    <vehicle id="12" depart="6.00">
        <route edges="E3E2 E2D2 D2C2 C2B2 B2B3 B3B4"/>
    </vehicle>
    <vehicle id="13" depart="6.50">
        <route edges="A2B2"/>
    </vehicle>
    <vehicle id="14" depart="7.00">
        <route edges="E0D0 D0C0 C0C1 C1C2 C2C3 C3C4 C4D4"/>
    </vehicle>
    <vehicle id="15" depart="7.50">
        <route edges="D4C4 C4C3 C3C2 C2D2 D2D3"/>
    </vehicle>
    <vehicle id="16" depart="8.00">
        <route edges="C3B3 B3C3 C3D3 D3E3 E3E4"/>
    </vehicle>
    <vehicle id="17" depart="8.50">
        <route edges="B4C4 C4C3 C3C4"/>
    </vehicle>
    <vehicle id="18" depart="9.00">
        <route edges="D4E4 E4E3 E3E2 E2E1 E1E0 E0D0 D0C0"/>
    </vehicle>
    <vehicle id="19" depart="9.50">
        <route edges="E0E1 E1E2 E2E3 E3E4 E4D4 D4C4 C4B4"/>
    </vehicle>
    <vehicle id="20" depart="10.00">
        <route edges="D2C2 C2C1 C1B1 B1A1 A1A2"/>
    </vehicle>
    <vehicle id="21" depart="10.50">
        <route edges="B1B2 B2C2"/>
    </vehicle>
    <vehicle id="22" depart="11.00">
        <route edges="A2A3 A3B3 B3B2 B2B1 B1B2"/>
    </vehicle>
    <vehicle id="23" depart="11.50">
        <route edges="A3A2 A2B2 B2B3"/>
    </vehicle>
    <vehicle id="24" depart="12.00">
        <route edges="D0D1 D1D2 D2D3 D3D4 D4C4 C4B4 B4B3"/>
    </vehicle>
    <vehicle id="25" depart="12.50">
        <route edges="B4B3 B3B2 B2B1 B1A1"/>
    </vehicle>
    <vehicle id="26" depart="13.00">
        <route edges="B2B1 B1C1 C1D1 D1E1 E1E2 E2E3"/>
    </vehicle>
    <vehicle id="27" depart="13.50">
        <route edges="D0E0 E0E1 E1E2 E2E3 E3D3 D3C3 C3C4 C4D4"/>
    </vehicle>
    <vehicle id="28" depart="14.00">
        <route edges="B0A0 A0A1 A1A2 A2B2 B2C2 C2D2 D2D3"/>
    </vehicle>
    <vehicle id="29" depart="14.50">
        <route edges="B0A0 A0A1 A1A2 A2A3 A3A4 A4B4 B4C4"/>
    </vehicle>
    <vehicle id="30" depart="15.00">
        <route edges="E4E3 E3E2 E2E1 E1D1 D1D0 D0E0"/>
    </vehicle>
    <vehicle id="31" depart="15.50">
        <route edges="C3C4 C4C3 C3C2 C2C1 C1D1 D1D2"/>
    </vehicle>
    <vehicle id="32" depart="16.00">
        <route edges="E0D0 D0D1 D1D2 D2D3 D3D4"/>
    </vehicle>
    <vehicle id="33" depart="16.50">
        <route edges="B1B2 B2A2 A2A1 A1A0"/>
    </vehicle>
    <vehicle id="34" depart="17.00">
        <route edges="B3B2 B2B1"/>
    </vehicle>
    <vehicle id="35" depart="17.50">
        <route edges="B1A1 A1A2 A2A3 A3B3 B3C3 C3D3 D3E3 E3D3"/>
    </vehicle>
    <vehicle id="36" depart="18.00">
        <route edges="E1E0 E0D0 D0C0 C0C1 C1C2 C2C3 C3B3 B3B2"/>
    </vehicle>
    <vehicle id="37" depart="18.50">
        <route edges="D1C1 C1C0 C0B0"/>
    </vehicle>
    <vehicle id="38" depart="19.00">
        <route edges="E2E1 E1D1 D1C1 C1C2"/>
    </vehicle>
    <vehicle id="39" depart="19.50">
        <route edges="B2B1 B1C1"/>
    </vehicle>
    <vehicle id="40" depart="20.00">
        <route edges="C3C4 C4B4 B4B3 B3B2 B2B1"/>
    </vehicle>
    <vehicle id="41" depart="20.50">
        <route edges="C4B4 B4B3 B3B2 B2B1 B1C1 C1D1 D1E1 E1E2"/>
    </vehicle>
    <vehicle id="42" depart="21.00">
        <route edges="C0B0 B0B1 B1B0"/>
    </vehicle>
    <vehicle id="43" depart="21.50">
        <route edges="E4E3 E3E2 E2D2 D2C2 C2C3"/>
    </vehicle>
    <vehicle id="44" depart="22.00">
        <route edges="A2B2 B2B1 B1A1 A1A2"/>
    </vehicle>
    <vehicle id="45" depart="22.50">
        <route edges="A3A2 A2A1 A1A0 A0B0 B0C0 C0D0 D0D1"/>
    </vehicle>
    <vehicle id="46" depart="23.00">
        <route edges="D3E3 E3E2 E2D2 D2C2 C2C1 C1C0 C0D0"/>
    </vehicle>
    <vehicle id="47" depart="23.50">
        <route edges="A2A1 A1B1 B1B2 B2B3 B3B4 B4C4"/>
    </vehicle>
    <vehicle id="48" depart="24.00">
        <route edges="E4E3 E3D3 D3C3 C3B3"/>
    </vehicle>
    <vehicle id="49" depart="24.50">
        <route edges="E3E4 E4D4 D4D3 D3D2 D2D1 D1D0 D0E0 E0E1"/>
    </vehicle>
    <vehicle id="50" depart="25.00">
        <route edges="A0A1 A1A2 A2B2 B2C2 C2D2 D2D1"/>
    </vehicle>
    <vehicle id="51" depart="25.50">
        <route edges="D1D2 D2D3 D3C3 C3B3"/>
    </vehicle>
    <vehicle id="52" depart="26.00">
        <route edges="B2B1 B1B0 B0C0 C0D0 D0E0"/>
    </vehicle>
    <vehicle id="53" depart="26.50">
        <route edges="A3A2 A2B2 B2C2 C2C1 C1B1"/>
    </vehicle>
    <vehicle id="54" depart="27.00">
        <route edges="C1C2 C2C3 C3D3 D3E3 E3E2"/>
    </vehicle>
    <vehicle id="55" depart="27.50">
        <route edges="E1E0 E0D0 D0C0 C0C1 C1C2 C2B2 B2B1"/>
    </vehicle>
    <vehicle id="56" depart="28.00">
        <route edges="C2C3 C3B3 B3B2 B2B1 B1B0 B0B1"/>
    </vehicle>
    <vehicle id="57" depart="28.50">
        <route edges="E2E1 E1D1"/>
    </vehicle>
    <vehicle id="58" depart="29.00">
        <route edges="B2C2 C2C1 C1C0 C0D0 D0E0"/>
    </vehicle>
    <vehicle id="59" depart="29.50">
        <route edges="C4D4 D4D3 D3C3 C3B3 B3A3 A3A4 A4B4"/>
    </vehicle>
    <vehicle id="60" depart="30.00">
        <route edges="D3D2 D2C2 C2C3 C3C2"/>
    </vehicle>
    <vehicle id="61" depart="30.50">
        <route edges="D3D4 D4C4 C4C3 C3B3"/>
    </vehicle>
    <vehicle id="62" depart="31.00">
        <route edges="A0A1 A1A2 A2A3 A3B3 B3B2"/>
    </vehicle>
    <vehicle id="63" depart="31.50">
        <route edges="A0B0 B0C0 C0D0 D0E0 E0E1 E1E2 E2E3"/>
    </vehicle>
    <vehicle id="64" depart="32.00">
        <route edges="E1E0 E0D0 D0D1 D1D2 D2D3 D3D4 D4E4"/>
    </vehicle>
    <vehicle id="65" depart="32.50">
        <route edges="B3A3 A3A2 A2A1 A1B1"/>
    </vehicle>
    <vehicle id="66" depart="33.00">
        <route edges="E1E0 E0D0 D0D1 D1D2 D2D3 D3E3 E3D3"/>
    </vehicle>
    <vehicle id="67" depart="33.50">
        <route edges="A2A3 A3B3 B3C3 C3C2 C2B2"/>
    </vehicle>
    <vehicle id="68" depart="34.00">
        <route edges="A2A1 A1B1 B1C1 C1D1 D1D2 D2D3 D3C3"/>
    </vehicle>
    <vehicle id="69" depart="34.50">
        <route edges="D3D2 D2C2 C2B2 B2A2 A2A3 A3B3"/>
    </vehicle>
    <vehicle id="70" depart="35.00">
        <route edges="C2B2 B2B3 B3C3 C3C2"/>
    </vehicle>
    <vehicle id="71" depart="35.50">
        <route edges="B2B1 B1C1 C1D1 D1E1 E1D1"/>
    </vehicle>
    <vehicle id="72" depart="36.00">
        <route edges="C0D0 D0D1 D1C1 C1B1 B1A1"/>
    </vehicle>
    <vehicle id="73" depart="36.50">
        <route edges="C3C2 C2D2 D2D3"/>
    </vehicle>
    <vehicle id="74" depart="37.00">
        <route edges="B1A1 A1A2 A2A3 A3B3 B3A3"/>
    </vehicle>
    <vehicle id="75" depart="37.50">
        <route edges="E4E3 E3E2 E2E1 E1D1 D1D0 D0E0"/>
    </vehicle>
    <vehicle id="76" depart="38.00">
        <route edges="C1C0 C0C1 C1C2 C2D2"/>
    </vehicle>
    <vehicle id="77" depart="38.50">
        <route edges="A3A4 A4B4 B4B3 B3B2 B2B1 B1B0"/>
    </vehicle>
    <vehicle id="78" depart="39.00">
        <route edges="B3C3 C3C4 C4C3"/>
    </vehicle>
    <vehicle id="79" depart="39.50">
        <route edges="B1B2 B2B1 B1B0"/>
    </vehicle>
    <vehicle id="80" depart="40.00">
        <route edges="A2A1 A1A0 A0B0 B0C0 C0D0 D0D1"/>
    </vehicle>
    <vehicle id="81" depart="40.50">
        <route edges="B1B2 B2C2 C2D2 D2E2 E2D2"/>
    </vehicle>
    <vehicle id="82" depart="41.00">
        <route edges="E0E1 E1E2 E2D2 D2C2 C2B2 B2A2 A2A1"/>
    </vehicle>
    <vehicle id="83" depart="41.50">
        <route edges="B1C1 C1D1 D1D0"/>
    </vehicle>
    <vehicle id="84" depart="42.00">
        <route edges="B1B0 B0A0 A0A1 A1A2 A2A3 A3B3"/>
    </vehicle>
    <vehicle id="85" depart="42.50">
        <route edges="E2E3 E3D3 D3C3 C3D3"/>
    </vehicle>
    <vehicle id="86" depart="43.00">
        <route edges="C1D1 D1D2 D2D3 D3D4"/>
    </vehicle>
    <vehicle id="87" depart="43.50">
        <route edges="D4C4 C4B4 B4B3 B3B2 B2B1 B1B0 B0C0"/>
    </vehicle>
    <vehicle id="88" depart="44.00">
        <route edges="A2B2 B2C2 C2C1 C1B1"/>
    </vehicle>
    <vehicle id="89" depart="44.50">
        <route edges="C0D0 D0C0 C0C1 C1D1"/>
    </vehicle>
    <vehicle id="90" depart="45.00">
        <route edges="D2D3 D3D2 D2D1 D1D0"/>
    </vehicle>
    <vehicle id="91" depart="45.50">
        <route edges="E4D4 D4C4 C4B4 B4A4 A4A3 A3A2 A2B2"/>
    </vehicle>
    <vehicle id="92" depart="46.00">
        <route edges="C0C1 C1C2 C2B2 B2B3 B3C3"/>
    </vehicle>
    <vehicle id="93" depart="46.50">
        <route edges="E0E1 E1D1 D1C1 C1B1 B1C1"/>
    </vehicle>
    <vehicle id="94" depart="47.00">
        <route edges="B0C0 C0C1 C1C0"/>
    </vehicle>
    <vehicle id="95" depart="47.50">
        <route edges="C0D0 D0C0 C0B0 B0B1 B1B2 B2B3"/>
    </vehicle>
    <vehicle id="96" depart="48.00">
        <route edges="B1C1 C1C2 C2D2 D2E2 E2E1"/>
    </vehicle>
    <vehicle id="97" depart="48.50">
        <route edges="C1C0 C0D0 D0E0 E0E1"/>
    </vehicle>
    <vehicle id="98" depart="49.00">
        <route edges="C3C4 C4B4 B4A4 A4A3 A3A2 A2A1 A1B1"/>
    </vehicle>
    <vehicle id="99" depart="49.50">
        <route edges="E4E3 E3D3 D3D4 D4E4"/>
    </vehicle>
</routes>
