<?xml version="1.0" encoding="UTF-8"?>

<!-- generated on 2025-04-10 20:31:42.036851 by randomTrips.py UNKNOWN
<configuration>
    <net-file value="grid.net.xml"/>
    <end value="50.0"/>
    <period value="0.5"/>
</configuration>
-->

<routes xmlns:xsi="http://www.w3.org/2001/XMLSchema-instance" xsi:noNamespaceSchemaLocation="http://sumo.dlr.de/xsd/routes_file.xsd">
    <trip id="0" depart="0.00" from="D0E0" to="A1A0"/>
    <trip id="1" depart="0.50" from="B2B3" to="B1B0"/>
    <trip id="2" depart="1.00" from="D2D3" to="D1D2"/>
    <trip id="3" depart="1.50" from="E1E2" to="A2A3"/>
    <trip id="4" depart="2.00" from="C0D0" to="A1A0"/>
    <trip id="5" depart="2.50" from="B1B0" to="C2C3"/>
    <trip id="6" depart="3.00" from="A1A0" to="B0C0"/>
    <trip id="7" depart="3.50" from="D0E0" to="C3C2"/>
    <trip id="8" depart="4.00" from="B1B0" to="C4C3"/>
    <trip id="9" depart="4.50" from="D4C4" to="A0A1"/>
    <trip id="10" depart="5.00" from="D4C4" to="D1E1"/>
    <trip id="11" depart="5.50" from="B3C3" to="A4B4"/>
    <trip id="12" depart="6.00" from="E3E2" to="B3B4"/>
    <trip id="13" depart="6.50" from="A2B2" to="A2B2"/>
    <trip id="14" depart="7.00" from="E0D0" to="C4D4"/>
    <trip id="15" depart="7.50" from="D4C4" to="D2D3"/>
    <trip id="16" depart="8.00" from="C3B3" to="E3E4"/>
    <trip id="17" depart="8.50" from="B4C4" to="C3C4"/>
    <trip id="18" depart="9.00" from="D4E4" to="D0C0"/>
    <trip id="19" depart="9.50" from="E0E1" to="C4B4"/>
    <trip id="20" depart="10.00" from="D2C2" to="A1A2"/>
    <trip id="21" depart="10.50" from="B1B2" to="B2C2"/>
    <trip id="22" depart="11.00" from="A2A3" to="B1B2"/>
    <trip id="23" depart="11.50" from="A3A2" to="B2B3"/>
    <trip id="24" depart="12.00" from="D0D1" to="B4B3"/>
    <trip id="25" depart="12.50" from="B4B3" to="B1A1"/>
    <trip id="26" depart="13.00" from="B2B1" to="E2E3"/>
    <trip id="27" depart="13.50" from="D0E0" to="C4D4"/>
    <trip id="28" depart="14.00" from="B0A0" to="D2D3"/>
    <trip id="29" depart="14.50" from="B0A0" to="B4C4"/>
    <trip id="30" depart="15.00" from="E4E3" to="D0E0"/>
    <trip id="31" depart="15.50" from="C3C4" to="D1D2"/>
    <trip id="32" depart="16.00" from="E0D0" to="D3D4"/>
    <trip id="33" depart="16.50" from="B1B2" to="A1A0"/>
    <trip id="34" depart="17.00" from="B3B2" to="B2B1"/>
    <trip id="35" depart="17.50" from="B1A1" to="E3D3"/>
    <trip id="36" depart="18.00" from="E1E0" to="B3B2"/>
    <trip id="37" depart="18.50" from="D1C1" to="C0B0"/>
    <trip id="38" depart="19.00" from="E2E1" to="C1C2"/>
    <trip id="39" depart="19.50" from="B2B1" to="B1C1"/>
    <trip id="40" depart="20.00" from="C3C4" to="B2B1"/>
    <trip id="41" depart="20.50" from="C4B4" to="E1E2"/>
    <trip id="42" depart="21.00" from="C0B0" to="B1B0"/>
    <trip id="43" depart="21.50" from="E4E3" to="C2C3"/>
    <trip id="44" depart="22.00" from="A2B2" to="A1A2"/>
    <trip id="45" depart="22.50" from="A3A2" to="D0D1"/>
    <trip id="46" depart="23.00" from="D3E3" to="C0D0"/>
    <trip id="47" depart="23.50" from="A2A1" to="B4C4"/>
    <trip id="48" depart="24.00" from="E4E3" to="C3B3"/>
    <trip id="49" depart="24.50" from="E3E4" to="E0E1"/>
    <trip id="50" depart="25.00" from="A0A1" to="D2D1"/>
    <trip id="51" depart="25.50" from="D1D2" to="C3B3"/>
    <trip id="52" depart="26.00" from="B2B1" to="D0E0"/>
    <trip id="53" depart="26.50" from="A3A2" to="C1B1"/>
    <trip id="54" depart="27.00" from="C1C2" to="E3E2"/>
    <trip id="55" depart="27.50" from="E1E0" to="B2B1"/>
    <trip id="56" depart="28.00" from="C2C3" to="B0B1"/>
    <trip id="57" depart="28.50" from="E2E1" to="E1D1"/>
    <trip id="58" depart="29.00" from="B2C2" to="D0E0"/>
    <trip id="59" depart="29.50" from="C4D4" to="A4B4"/>
    <trip id="60" depart="30.00" from="D3D2" to="C3C2"/>
    <trip id="61" depart="30.50" from="D3D4" to="C3B3"/>
    <trip id="62" depart="31.00" from="A0A1" to="B3B2"/>
    <trip id="63" depart="31.50" from="A0B0" to="E2E3"/>
    <trip id="64" depart="32.00" from="E1E0" to="D4E4"/>
    <trip id="65" depart="32.50" from="B3A3" to="A1B1"/>
    <trip id="66" depart="33.00" from="E1E0" to="E3D3"/>
    <trip id="67" depart="33.50" from="A2A3" to="C2B2"/>
    <trip id="68" depart="34.00" from="A2A1" to="D3C3"/>
    <trip id="69" depart="34.50" from="D3D2" to="A3B3"/>
    <trip id="70" depart="35.00" from="C2B2" to="C3C2"/>
    <trip id="71" depart="35.50" from="B2B1" to="E1D1"/>
    <trip id="72" depart="36.00" from="C0D0" to="B1A1"/>
    <trip id="73" depart="36.50" from="C3C2" to="D2D3"/>
    <trip id="74" depart="37.00" from="B1A1" to="B3A3"/>
    <trip id="75" depart="37.50" from="E4E3" to="D0E0"/>
    <trip id="76" depart="38.00" from="C1C0" to="C2D2"/>
    <trip id="77" depart="38.50" from="A3A4" to="B1B0"/>
    <trip id="78" depart="39.00" from="B3C3" to="C4C3"/>
    <trip id="79" depart="39.50" from="B1B2" to="B1B0"/>
    <trip id="80" depart="40.00" from="A2A1" to="D0D1"/>
    <trip id="81" depart="40.50" from="B1B2" to="E2D2"/>
    <trip id="82" depart="41.00" from="E0E1" to="A2A1"/>
    <trip id="83" depart="41.50" from="B1C1" to="D1D0"/>
    <trip id="84" depart="42.00" from="B1B0" to="A3B3"/>
    <trip id="85" depart="42.50" from="E2E3" to="C3D3"/>
    <trip id="86" depart="43.00" from="C1D1" to="D3D4"/>
    <trip id="87" depart="43.50" from="D4C4" to="B0C0"/>
    <trip id="88" depart="44.00" from="A2B2" to="C1B1"/>
    <trip id="89" depart="44.50" from="C0D0" to="C1D1"/>
    <trip id="90" depart="45.00" from="D2D3" to="D1D0"/>
    <trip id="91" depart="45.50" from="E4D4" to="A2B2"/>
    <trip id="92" depart="46.00" from="C0C1" to="B3C3"/>
    <trip id="93" depart="46.50" from="E0E1" to="B1C1"/>
    <trip id="94" depart="47.00" from="B0C0" to="C1C0"/>
    <trip id="95" depart="47.50" from="C0D0" to="B2B3"/>
    <trip id="96" depart="48.00" from="B1C1" to="E2E1"/>
    <trip id="97" depart="48.50" from="C1C0" to="E0E1"/>
    <trip id="98" depart="49.00" from="C3C4" to="A1B1"/>
    <trip id="99" depart="49.50" from="E4E3" to="D4E4"/>
</routes>
